Version 4
SHEET 1 880 680
WIRE -656 -736 -656 -800
WIRE -592 -736 -656 -736
WIRE -560 -736 -560 -800
WIRE -496 -736 -560 -736
WIRE -464 -736 -464 -800
WIRE -400 -736 -464 -736
WIRE -368 -736 -368 -800
WIRE -288 -736 -368 -736
WIRE -672 -688 -912 -688
WIRE -576 -688 -672 -688
WIRE -480 -688 -576 -688
WIRE -384 -688 -480 -688
WIRE -672 -656 -672 -688
WIRE -656 -656 -656 -736
WIRE -576 -656 -576 -688
WIRE -560 -656 -560 -736
WIRE -480 -656 -480 -688
WIRE -464 -656 -464 -736
WIRE -384 -656 -384 -688
WIRE -368 -656 -368 -736
WIRE 32 -576 -144 -576
WIRE 208 -576 96 -576
WIRE -560 -560 -560 -592
WIRE -256 -560 -560 -560
WIRE -208 -560 -256 -560
WIRE -912 -544 -912 -688
WIRE -464 -544 -464 -592
WIRE -432 -544 -464 -544
WIRE -208 -544 -432 -544
WIRE 32 -544 0 -544
WIRE -592 -512 -592 -736
WIRE 0 -512 0 -544
WIRE 0 -512 -592 -512
WIRE 208 -512 208 -576
WIRE 256 -512 208 -512
WIRE 448 -512 320 -512
WIRE -656 -480 -656 -592
WIRE -304 -480 -656 -480
WIRE -208 -480 -304 -480
WIRE 256 -480 -144 -480
WIRE -400 -464 -400 -736
WIRE -208 -464 -400 -464
WIRE 448 -432 448 -512
WIRE 496 -432 448 -432
WIRE 496 -400 448 -400
WIRE -304 -384 -304 -480
WIRE -208 -384 -304 -384
WIRE -48 -384 -144 -384
WIRE 32 -384 -48 -384
WIRE 208 -384 96 -384
WIRE -256 -368 -256 -560
WIRE -208 -368 -256 -368
WIRE -368 -352 -368 -592
WIRE 32 -352 -16 -352
WIRE 208 -352 208 -384
WIRE 240 -352 208 -352
WIRE 448 -352 448 -400
WIRE 448 -352 304 -352
WIRE -288 -320 -288 -736
WIRE -16 -320 -16 -352
WIRE -16 -320 -288 -320
WIRE 240 -320 208 -320
WIRE -64 -288 -144 -288
WIRE 32 -288 -64 -288
WIRE 208 -288 208 -320
WIRE 208 -288 96 -288
WIRE -496 -272 -496 -736
WIRE -208 -272 -496 -272
WIRE -288 -256 -288 -320
WIRE -208 -256 -288 -256
WIRE -48 -256 -48 -384
WIRE 32 -256 -48 -256
WIRE -304 -192 -304 -384
WIRE -208 -192 -304 -192
WIRE 32 -192 -144 -192
WIRE -432 -160 -432 -544
WIRE -208 -160 -432 -160
WIRE -64 -160 -64 -288
WIRE 32 -160 -64 -160
FLAG -656 -800 A
FLAG -560 -800 B
FLAG -464 -800 C
FLAG -368 -800 D
FLAG -912 -544 0
SYMBOL Digital\\and -176 -624 R0
SYMATTR InstName ~B~C
SYMBOL Digital\\and -176 -528 R0
SYMATTR InstName ~AC
SYMBOL Digital\\and -176 -432 R0
SYMATTR InstName ~A~B
SYMBOL Digital\\and -176 -336 R0
SYMATTR InstName BD
SYMBOL Digital\\inv -400 -656 R90
SYMATTR InstName ~C
SYMBOL Digital\\inv -592 -656 R90
SYMATTR InstName ~A
SYMBOL Digital\\inv -496 -656 R90
SYMATTR InstName ~B
SYMBOL Digital\\inv -304 -656 R90
SYMATTR InstName ~D
SYMBOL Digital\\and -176 -240 R0
SYMATTR InstName ~A~C
SYMBOL Digital\\and -176 -144 R0
SYMATTR InstName A2
SYMBOL Digital\\and -176 -48 R0
SYMATTR InstName A3
SYMBOL Digital\\and -176 48 R0
SYMATTR InstName A4
SYMBOL Digital\\and 64 -624 R0
SYMATTR InstName A~B~C
SYMBOL Digital\\and 64 -432 R0
SYMATTR InstName ~A~BD
SYMBOL Digital\\and 64 -336 R0
SYMATTR InstName ~ABD
SYMBOL Digital\\and 64 -240 R0
SYMATTR InstName ~A~CBD
SYMBOL Digital\\or 288 -560 R0
SYMATTR InstName A~B~C+~AC
SYMBOL Digital\\or 272 -400 R0
SYMATTR InstName ~A~BD+~ABD
SYMBOL Digital\\or 528 -480 R0
SYMATTR InstName a
