Version 4
SHEET 1 880 1212
WIRE -1520 224 -1520 160
WIRE -1456 224 -1520 224
WIRE -1424 224 -1424 160
WIRE -1360 224 -1424 224
WIRE -1328 224 -1328 160
WIRE -1264 224 -1328 224
WIRE -1232 224 -1232 160
WIRE -1152 224 -1232 224
WIRE -1536 272 -1776 272
WIRE -1440 272 -1536 272
WIRE -1344 272 -1440 272
WIRE -1248 272 -1344 272
WIRE -1536 304 -1536 272
WIRE -1520 304 -1520 224
WIRE -1440 304 -1440 272
WIRE -1424 304 -1424 224
WIRE -1344 304 -1344 272
WIRE -1328 304 -1328 224
WIRE -1248 304 -1248 272
WIRE -1232 304 -1232 224
WIRE -1424 400 -1424 368
WIRE -1120 400 -1424 400
WIRE -1072 400 -1120 400
WIRE -688 400 -1008 400
WIRE -624 400 -688 400
WIRE -400 400 -560 400
WIRE -288 400 -336 400
WIRE -1776 416 -1776 272
WIRE -1328 416 -1328 368
WIRE -1296 416 -1328 416
WIRE -1072 416 -1296 416
WIRE -1456 432 -1456 224
WIRE -1072 432 -1456 432
WIRE -624 432 -704 432
WIRE -1520 480 -1520 368
WIRE -1168 480 -1520 480
WIRE -1072 480 -1168 480
WIRE -704 480 -704 432
WIRE -704 480 -1008 480
WIRE -1264 496 -1264 224
WIRE -1184 496 -1264 496
WIRE -1072 496 -1184 496
WIRE -1168 576 -1168 480
WIRE -1072 576 -1168 576
WIRE -864 576 -928 576
WIRE -832 576 -864 576
WIRE -656 576 -768 576
WIRE -1120 608 -1120 400
WIRE -1072 608 -1120 608
WIRE -928 608 -928 576
WIRE -928 608 -1008 608
WIRE -832 608 -880 608
WIRE -656 608 -656 576
WIRE -624 608 -656 608
WIRE -416 608 -416 432
WIRE -416 608 -560 608
WIRE -1232 640 -1232 368
WIRE -880 640 -880 608
WIRE -880 640 -1232 640
WIRE -624 640 -656 640
WIRE -1168 688 -1168 576
WIRE -1072 688 -1168 688
WIRE -912 688 -1008 688
WIRE -656 688 -656 640
WIRE -656 688 -912 688
WIRE -1360 704 -1360 224
WIRE -1072 704 -1360 704
WIRE -1152 720 -1152 224
WIRE -1072 720 -1152 720
WIRE -1168 768 -1168 688
WIRE -944 768 -1168 768
WIRE -912 768 -912 688
WIRE -832 768 -912 768
WIRE -624 768 -768 768
WIRE -400 768 -560 768
WIRE -1296 800 -1296 416
WIRE -832 800 -1296 800
WIRE -688 800 -688 400
WIRE -624 800 -688 800
WIRE -400 848 -400 768
WIRE -352 848 -400 848
WIRE -240 848 -288 848
WIRE -1184 864 -1184 496
WIRE -1152 864 -1184 864
WIRE -1072 864 -1152 864
WIRE -912 864 -1008 864
WIRE -832 864 -912 864
WIRE -656 864 -768 864
WIRE -352 880 -368 880
WIRE -1232 896 -1232 640
WIRE -1136 896 -1232 896
WIRE -1072 896 -1136 896
WIRE -944 896 -944 768
WIRE -832 896 -944 896
WIRE -656 928 -656 864
WIRE -624 928 -656 928
WIRE -368 928 -368 880
WIRE -368 928 -560 928
WIRE -624 960 -656 960
WIRE -1136 992 -1136 896
WIRE -1072 992 -1136 992
WIRE -832 992 -1008 992
WIRE -656 992 -656 960
WIRE -656 992 -768 992
WIRE -1152 1024 -1152 864
WIRE -1072 1024 -1152 1024
WIRE -864 1024 -864 576
WIRE -832 1024 -864 1024
WIRE -864 1120 -864 1024
WIRE -832 1120 -864 1120
WIRE -912 1152 -912 864
WIRE -832 1152 -912 1152
WIRE -704 1152 -768 1152
FLAG -1520 160 A
FLAG -1424 160 B
FLAG -1328 160 C
FLAG -1232 160 D
FLAG -1776 416 0
FLAG -288 400 a
FLAG -240 848 d
FLAG -704 1152 c
SYMBOL Digital\\and -1040 432 R0
SYMATTR InstName ~AC
SYMBOL Digital\\and -1040 640 R0
SYMATTR InstName ~ABD
SYMBOL Digital\\inv -1264 304 R90
SYMATTR InstName ~C
SYMBOL Digital\\inv -1456 304 R90
SYMATTR InstName ~A
SYMBOL Digital\\inv -1360 304 R90
SYMATTR InstName ~B
SYMBOL Digital\\inv -1168 304 R90
SYMATTR InstName ~D
SYMBOL Digital\\and -1040 816 R0
SYMATTR InstName C~D
SYMBOL Digital\\and -1040 352 R0
SYMATTR InstName A~B~C
SYMBOL Digital\\and -800 528 R0
SYMATTR InstName ~A~B~D
SYMBOL Digital\\and -800 720 R0
SYMATTR InstName ~C[~ABD]
SYMBOL Digital\\or -592 352 R0
SYMATTR InstName A~B~C+~AC
SYMBOL Digital\\or -592 560 R0
SYMATTR InstName ~A~B~D+~ABD
SYMBOL Digital\\or -368 352 R0
WINDOW 0 -16 133 Left 2
SYMATTR InstName A~B~C+~AC+~A~B~D+~ABD
SYMBOL Digital\\and -800 816 R0
SYMATTR InstName ~A[C~D]
SYMBOL Digital\\or -1040 944 R0
SYMATTR InstName C+~D
SYMBOL Digital\\and -800 944 R0
SYMATTR InstName ~A~B[C+~D]
SYMBOL Digital\\or -592 720 R0
SYMATTR InstName A~B~C+~A~C[BD]
SYMBOL Digital\\or -592 880 R0
WINDOW 0 -39 8 Left 2
SYMATTR InstName ~A[C~D]+~A~B[C+~D]
SYMBOL Digital\\or -320 800 R0
WINDOW 0 -33 135 Left 2
SYMATTR InstName A~B~C+~A~C[BD]+~A~B[C+~D]
SYMBOL Digital\\or -1040 528 R0
SYMATTR InstName ~[A+B]=~A~B
SYMBOL Digital\\and -800 1072 R0
WINDOW 0 57 45 Left 2
SYMATTR InstName ~[~A~B][C~D]=A+B+~C+D
